384
       -570.31586581
 O          1.8243753644        1.0366600266       -3.1968579096
 O          3.2414829295        2.0934277692       -1.2069583806
 C          0.9718516090       -1.3055478686       -0.4530173749
 C          0.1728012671       -2.5490929013       -0.1965204500
 C          0.9912335763       -0.7422875177       -1.7276833130
 C          1.7427301107        0.3886034708       -1.9895722062
 C          1.7172961726       -0.7201566330        0.5561080983
 C          2.5020103255        0.9634830612       -0.9585004990
 C          2.4852454156        0.4071874678        0.3060548988
 C         -1.2874353498       -2.4489400266       -0.5276590127
 C          1.2501445692        0.4062338993       -4.3206222631
 C         -1.9671632131       -1.3351643756       -0.7278233926
 H          0.6005027886       -3.3697598326       -0.7823340558
 H          0.2594740933       -2.8245734875        0.8588695486
 H          0.3976914810       -1.1935095150       -2.5056461711
 H          1.7085931552       -1.1450971902        1.5483538865
 H          3.0701093400        0.8593879831        1.0914482038
 H         -1.7964588411       -3.4035050900       -0.5623407614
 H          0.1627177300        0.3535844947       -4.2321289705
 H          1.6536532976       -0.5985911469       -4.4633251533
 H          1.5164916847        1.0207032177       -5.1778766017
 H          3.1750612172        2.2899305497       -2.1554830872
 H         -3.0227541642       -1.3521926420       -0.9353619992
 H         -1.4953304189       -0.3667412408       -0.6987855220
 O         -0.3114477025       -7.1759571177       -2.6142676817
 O         -0.6000561812       -4.6081069590       -3.3748413449
 C          3.0826746752       -5.8601468248       -1.9139711469
 C          4.3867609406       -6.2636468549       -1.2885183717
 C          2.0216390494       -6.7588652232       -1.9851550644
 C          0.7926952655       -6.3681757073       -2.4888212418
 C          2.9047067045       -4.5702574204       -2.3835182232
 C          0.6101943917       -5.0453757680       -2.9205682500
 C          1.6790294212       -4.1658021631       -2.8829459290
 C          4.4363529593       -5.9924772055        0.1901506972
 C         -0.1942423556       -8.5268646128       -2.2508395368
 C          3.4764165310       -5.4409315411        0.9077526830
 H          4.5746856575       -7.3304156169       -1.4476848883
 H          5.2098059890       -5.7124144113       -1.7549289080
 H          2.1700880966       -7.7698923932       -1.6385056445
 H          3.7251862227       -3.8721555277       -2.3532817249
 H          1.5456866245       -3.1631147333       -3.2533134106
 H          5.3632004898       -6.2845664281        0.6673301853
 H         -1.1662593249       -8.9719870698       -2.4591907337
 H          0.0348051746       -8.6341926342       -1.1856178938
 H          0.5723453371       -9.0356243922       -2.8439386492
 H         -1.2742641321       -5.3037414086       -3.2640856253
 H          3.5977585349       -5.2729376630        1.9644406538
 H          2.5434433494       -5.1227161932        0.4714343151
 O         -0.9443750728        3.5391712211        0.5111501231
 O         -2.2220114984        5.6989995750        1.4030677355
 C          0.9876509070        4.2337264056        3.5940186797
 C          2.1461812456        3.6865212419        4.3809662455
 C          0.5924253925        3.5972229898        2.4221629636
 C         -0.4720718598        4.0798591416        1.6859929091
 C          0.3141958114        5.3714127882        4.0073833588
 C         -1.1633512717        5.2146155172        2.1298338715
 C         -0.7607024675        5.8590624120        3.2822351047
 C          1.9977752704        3.8883048413        5.8557028107
 C         -0.1338951685        2.5841937312       -0.1280991261
 C          2.9178656064        4.4441015208        6.6209095483
 H          2.2303430530        2.6165581735        4.1716603990
 H          3.0705733395        4.1621610320        4.0465186639
 H          1.1219553816        2.7161055089        2.0986099496
 H          0.6326117286        5.8847672074        4.9020663319
 H         -1.2961004484        6.7407582047        3.5964236633
 H          1.0659940285        3.5365261714        6.2820231932
 H          0.8727782897        2.9805648692       -0.2770186529
 H         -0.5989838705        2.3929392381       -1.0943085918
 H         -0.0818242529        1.6554462625        0.4451668742
 H         -2.4891277738        5.0135803630        0.7667249251
 H          2.7873744613        4.5631608283        7.6837435660
 H          3.8463572678        4.8014217241        6.2068931033
 O         -7.3460324662       -2.1462713311       -1.2002004711
 O         -5.3777654537       -0.3991588830       -1.0261163478
 C         -7.6884402262       -1.1272533397        2.3449494399
 C         -8.5651978537       -1.3894415363        3.5436579499
 C         -7.9381050948       -1.7865543245        1.1441755519
 C         -7.1728832641       -1.5337600858        0.0221162833
 C         -6.6450977575       -0.2227343560        2.4072684923
 C         -6.1156450709       -0.6080301737        0.0909356523
 C         -5.8609571951        0.0278130646        1.2929375667
 C         -9.9564631928       -0.8868620691        3.2948800167
 C         -8.4390782873       -3.0168372364       -1.3623241051
 C        -10.4775734754        0.1740590430        3.8806510342
 H         -8.6044789112       -2.4659140961        3.7408979673
 H         -8.1462999112       -0.8860742970        4.4154558159
 H         -8.7411729968       -2.5057614656        1.1014252308
 H         -6.4277329728        0.2853809571        3.3341144418
 H         -5.0421622182        0.7280333560        1.3521116915
 H        -10.5301683098       -1.4448197346        2.5657141526
 H         -9.3874419761       -2.5105557715       -1.1624557962
 H         -8.3518315563       -3.8977749896       -0.7168685311
 H         -8.4108762681       -3.3332655659       -2.4040941536
 H         -4.7538460982        0.3367530220       -0.8792009019
 H        -11.4760504932        0.5157645338        3.6648120308
 H         -9.9226304254        0.7524593769        4.6005223091
 O         -3.2307665918        3.9273223512        4.2687581468
 O         -3.6275344897        2.8539743263        1.8721302085
 C         -0.8611921034        1.0785451856        4.4029803158
 C          0.0993468980        0.4286967731        5.3615274937
 C         -1.5497503686        2.2201952861        4.8078859697
 C         -2.4780495922        2.8143326865        3.9761517879
 C         -1.1199934627        0.5369148996        3.1568600345
 C         -2.7253035625        2.2583345059        2.7124044663
 C         -2.0557181833        1.1180675114        2.3154665131
 C         -0.6327600939       -0.0231264888        6.5883684751
 C         -3.0354293783        4.5453504983        5.5148557635
 C         -0.2553060272        0.2402880906        7.8251346503
 H          0.5672818833       -0.4348827722        4.8841934150
 H          0.8898505945        1.1250372987        5.6474952622
 H         -1.3525671202        2.6248835190        5.7875592635
 H         -0.5986109463       -0.3486003256        2.8307227623
 H         -2.2724295696        0.6870271002        1.3514770528
 H         -1.5376983432       -0.5856495506        6.3947556594
 H         -3.7110795389        5.3988961540        5.5285673362
 H         -2.0043103344        4.8924883284        5.6259054181
 H         -3.2865143090        3.8691601647        6.3385931589
 H         -4.0166507418        3.6190689944        2.3227813657
 H         -0.8137008263       -0.1005132328        8.6816163821
 H          0.6374611778        0.8064389687        8.0365881277
 O         -3.7682053495        4.6128576625       -0.8460722601
 O         -3.6875870265        1.8595024065       -0.7074185163
 C         -2.0172744223        3.7682128043       -4.0020652020
 C         -1.3563186472        4.4500501541       -5.1699252592
 C         -2.5950012943        4.5228731376       -2.9887818873
 C         -3.1714786864        3.9154599610       -1.8873142897
 C         -2.0579872992        2.3865978656       -3.9134620923
 C         -3.1592531990        2.5177596798       -1.7790632611
 C         -2.6153633782        1.7677190529       -2.8109979252
 C         -0.1487050028        3.7013103493       -5.6433107402
 C         -4.0912719767        5.9735483471       -1.0732593910
 C          0.1606378793        3.4925492490       -6.9094500037
 H         -2.0702346992        4.5601255035       -5.9917347282
 H         -1.0486612986        5.4550994161       -4.8627571780
 H         -2.5789801067        5.5978503910       -3.0713226076
 H         -1.6483867336        1.7851131703       -4.7089510357
 H         -2.6414845607        0.6926197148       -2.7379848143
 H          0.4897272564        3.3281945845       -4.8538100464
 H         -4.7398576411        6.0776272805       -1.9475958351
 H         -3.1998773413        6.5876344119       -1.2090183316
 H         -4.6183484884        6.3091829070       -0.1818011906
 H         -3.6943910104        2.4211589367        0.0910554133
 H          1.0497902208        2.9611234531       -7.2042787220
 H         -0.4583034781        3.8588039313       -7.7131597004
 O          1.6759398586       -4.9198425248        4.6337111036
 O          2.1023734831       -2.3310519238        5.2857426479
 C          5.3793660635       -4.8323538385        4.7789273664
 C          6.5773183646       -5.7202863091        4.5773954356
 C          4.0933127827       -5.3347054377        4.6176206033
 C          2.9904128028       -4.5144126534        4.7769853307
 C          5.5464796267       -3.4928459264        5.0932302566
 C          3.1642680098       -3.1620849616        5.1103870845
 C          4.4499903728       -2.6648339358        5.2572871720
 C          7.2110144790       -5.4475445581        3.2442574211
 C          1.4157627539       -6.2876260126        4.4354584758
 C          7.4533519162       -6.3704440810        2.3328789412
 H          7.3130456169       -5.5074906844        5.3589628022
 H          6.2925327530       -6.7714814798        4.6466941819
 H          3.9663189428       -6.3762841086        4.3655627427
 H          6.5421710006       -3.0952708295        5.2119764359
 H          4.5689630629       -1.6227451135        5.5064745354
 H          7.4652194527       -4.4101704924        3.0718086843
 H          1.8297094598       -6.8923224655        5.2476660329
 H          1.8099174048       -6.6357300868        3.4767617399
 H          0.3310802112       -6.3840237123        4.4280466666
 H          1.2846833626       -2.8541907299        5.3496808313
 H          7.9263770527       -6.1419280872        1.3930492827
 H          7.2044907347       -7.4069253888        2.5010050780
 O          0.3866863930        9.7237992460       -1.8774951882
 O         -1.1758946450        7.8759488122       -0.2012009365
 C          1.4436135131        6.5130075585       -3.1649350020
 C          2.4004216804        6.0104617039       -4.2150539526
 C          1.2798089780        7.8669042839       -2.9279245616
 C          0.4216902076        8.3620335701       -1.9463763331
 C          0.7241573515        5.6203219631       -2.3839454335
 C         -0.2990143293        7.4490464167       -1.1606919363
 C         -0.1254913580        6.0914071837       -1.4030273916
 C          3.5387454796        5.2716973223       -3.5778923598
 C         -0.3550409126       10.3710053147       -0.8673243563
 C          3.8346379807        4.0052459983       -3.8061066781
 H          1.8785149615        5.3518028759       -4.9131186119
 H          2.7983275364        6.8603835248       -4.7747476226
 H          1.8227305485        8.5970216755       -3.5088864950
 H          0.8203882564        4.5570265107       -2.5417300663
 H         -0.6770593955        5.3863144529       -0.8026719121
 H          4.1269163680        5.8526315642       -2.8789914163
 H         -1.4252694025       10.1770334903       -0.9662225089
 H         -0.1632572624       11.4342467699       -1.0108278193
 H         -0.0233872322       10.0669534184        0.1270966332
 H         -1.4667471502        7.1292095698        0.3529364799
 H          4.6816421419        3.5286665953       -3.3407443682
 H          3.2677496116        3.4017192582       -4.4973775749
 O         -1.0376163344       -0.5329716636       -6.8749917223
 O         -0.6146245823       -2.2830610754       -4.9361354337
 C         -4.2881409228       -0.3600991853       -5.1063621772
 C         -5.6083931462        0.3632875748       -5.1712936560
 C         -3.2976731227       -0.0938542673       -6.0456823275
 C         -2.0708794376       -0.7331494940       -5.9904526649
 C         -4.0330853417       -1.2684125038       -4.0936031951
 C         -1.8271634344       -1.6674224386       -4.9688129505
 C         -2.8123308697       -1.9194276035       -4.0303564747
 C         -5.6120076037        1.4913661852       -4.1841152055
 C         -1.2329912696        0.3832807425       -7.9246923784
 C         -5.6578380054        2.7674413116       -4.5147168308
 H         -5.7813270802        0.7462261616       -6.1783545323
 H         -6.4103819331       -0.3334946108       -4.9147823033
 H         -3.5021059398        0.6220080058       -6.8261137247
 H         -4.7851397762       -1.4705450713       -3.3484554514
 H         -2.6092567011       -2.6298794207       -3.2427202278
 H         -5.5504730387        1.1852369607       -3.1496910164
 H         -1.4241681665        1.3913030460       -7.5431559844
 H         -2.0559075092        0.0745792592       -8.5770428073
 H         -0.3031980721        0.3858485205       -8.4907942099
 H         -0.6403835618       -3.0310330138       -4.3077960791
 H         -5.6429761918        3.5531811268       -3.7785923530
 H         -5.7154899142        3.0889464913       -5.5421456349
 O          5.2444977729        4.7957982851        3.2745690463
 O          4.1703587368        3.2408826692        1.2374906505
 C          3.6528664038        7.3689158731        1.1893788875
 C          3.4478559004        8.8558412902        1.1863551235
 C          4.3531648909        6.7463132079        2.2131310005
 C          4.5418006612        5.3744321722        2.2274771278
 C          3.1351187018        6.5843577396        0.1694908002
 C          4.0009771365        4.5879579715        1.2022019833
 C          3.3022884480        5.2134541687        0.1788524531
 C          2.1230097658        9.2802104090        1.7556917745
 C          6.5445925318        4.3662241068        2.9157800978
 C          1.1570205065        8.4691237205        2.1411230911
 H          4.2407235730        9.3439345153        1.7606066625
 H          3.5078523007        9.2334403289        0.1600330070
 H          4.7713871612        7.3255715940        3.0228658381
 H          2.5927064579        7.0466855884       -0.6406874474
 H          2.8936636838        4.6162361804       -0.6240093978
 H          1.9985996163       10.3542555330        1.8289420516
 H          6.5227556853        3.6583718109        2.0826906131
 H          6.9617537351        3.8820535812        3.7972712084
 H          7.1721871287        5.2206712119        2.6386336177
 H          3.8319641132        2.8558788288        0.4095522659
 H          0.2273178526        8.8442078884        2.5342862580
 H          1.2527099469        7.3981505898        2.0807339993
 O         -0.4625026141       -3.6334764410        5.7398694633
 O         -0.1786387445       -3.3125075542        3.0697666920
 C         -3.8249209732       -2.3653208520        4.8208190208
 C         -5.1494555438       -2.0387370766        5.4486349318
 C         -2.7824940556       -2.8485778371        5.6053609513
 C         -1.5571912337       -3.1577204608        5.0430446903
 C         -3.6141661211       -2.1776963249        3.4644957672
 C         -1.3623503831       -2.9968293099        3.6628426069
 C         -2.3958334586       -2.4923779943        2.8898788142
 C         -5.3062544025       -0.5897677710        5.8187387053
 C         -0.5760289179       -3.8117607363        7.1300157348
 C         -4.5064980946        0.3897750226        5.4439403809
 H         -5.9533314234       -2.2949675108        4.7511957212
 H         -5.2943863769       -2.6411830560        6.3501812691
 H         -2.9429332474       -2.9786221191        6.6647361289
 H         -4.4094052316       -1.7896586720        2.8465194275
 H         -2.2355101532       -2.3615352168        1.8321026758
 H         -6.1727142746       -0.3810408654        6.4350589226
 H         -0.7703964563       -2.8619816934        7.6366257150
 H          0.3864880246       -4.2036856041        7.4558253360
 H         -1.3611403116       -4.5323474002        7.3777930412
 H          0.3890763129       -3.8006092558        3.6909290837
 H         -4.6891433030        1.4097853004        5.7381886047
 H         -3.6419472364        0.2182778279        4.8256501247
 O          4.6678489842       -0.8121263866       -8.0899677874
 O          1.7929693016       -0.8548102913       -7.4058323478
 C          4.4042496226       -3.8817921660       -6.1894653796
 C          5.3320083540       -4.9548528676       -5.6776708937
 C          4.8669919084       -2.8125328806       -6.9355931195
 C          4.0276181201       -1.7878109328       -7.3735627987
 C          3.0491328524       -3.9433699292       -5.8960048817
 C          2.6679137245       -1.8432378256       -7.0403243711
 C          2.2055077800       -2.9365645321       -6.3162600991
 C          4.8622524286       -6.3071765290       -6.1161453615
 C          3.9505369093        0.2973169838       -8.5765671922
 C          4.3373408742       -7.2093947850       -5.3086476635
 H          6.3412839821       -4.7748851903       -6.0537161496
 H          5.3541756494       -4.9113966179       -4.5853914691
 H          5.9112067481       -2.7310398554       -7.1979109125
 H          2.6591984576       -4.7744106176       -5.3302141956
 H          1.1535256923       -2.9748857652       -6.0761913021
 H          4.9478007972       -6.5037981792       -7.1770192437
 H          3.5160911260        0.8824981515       -7.7625340181
 H          3.1586610625       -0.0040233236       -9.2656732825
 H          4.6845778281        0.9030780690       -9.1080881380
 H          0.9170925828       -1.0576937518       -7.0383410940
 H          3.9931509410       -8.1653608778       -5.6667122929
 H          4.2300273061       -7.0261236862       -4.2518354922
 O          5.9310956628        0.4796168408        4.4466149108
 O          7.9737255298       -1.2122678370        4.6586607812
 C          7.0400085427        0.3113425388        0.9143196319
 C          6.7162497376        0.9115842950       -0.4277186213
 C          6.2959539593        0.6894205129        2.0289617644
 C          6.5984172612        0.1823982896        3.2785588540
 C          8.0867839920       -0.5812061658        1.0671664855
 C          7.6662868695       -0.7169072168        3.4248403138
 C          8.3978888526       -1.0964322717        2.3150706866
 C          7.4026012724        2.2366814339       -0.5774556535
 C          4.7452480752        1.2350600728        4.3525809656
 C          6.7943084431        3.3672549808       -0.8828275002
 H          7.0621167520        0.2378770599       -1.2168793931
 H          5.6384345848        1.0451110464       -0.5275604958
 H          5.4885850352        1.3927290667        1.9032558088
 H          8.6634234056       -0.8867985771        0.2070893014
 H          9.2105816354       -1.7939772954        2.4421552583
 H          8.4706652575        2.2182061335       -0.4026313526
 H          4.9250659807        2.2268287953        3.9333582808
 H          4.3790416660        1.3389938345        5.3732486710
 H          3.9981397621        0.7092501885        3.7493624848
 H          7.3681681298       -0.7969622111        5.2884831004
 H          7.3278442135        4.2982843108       -0.9752338326
 H          5.7328498709        3.4122338226       -1.0610501637
 O         -7.9426041786        3.0947779129        2.9094243232
 O         -5.9183748716        4.0781642427        1.0377384508
 C         -8.9300892413        1.4580001346       -0.1704049731
 C        -10.0533321942        0.5461590746       -0.5893232737
 C         -8.8671669851        1.9046408907        1.1385020970
 C         -7.8624756665        2.7533697757        1.5876405016
 C         -7.9576499934        1.8769950254       -1.0634561131
 C         -6.8996447410        3.1946963138        0.6695445453
 C         -6.9614633952        2.7344124521       -0.6388144497
 C        -11.3394558343        1.3120815231       -0.6492875857
 C         -6.7790807125        3.5080629019        3.5903241080
 C        -12.3784742535        1.0850464620        0.1311940274
 H         -9.8302926352        0.1284955806       -1.5744956610
 H        -10.1472373957       -0.2670047538        0.1328959923
 H         -9.6048639081        1.5871924506        1.8582313617
 H         -7.9674235683        1.5404866052       -2.0891200673
 H         -6.2080071719        3.0642139708       -1.3408040417
 H        -11.3639995615        2.1114514610       -1.3782633019
 H         -5.9683219853        2.7863862981        3.4596670703
 H         -7.0591174040        3.5477561306        4.6430922387
 H         -6.4436589163        4.4961939078        3.2678676533
 H         -5.2945434802        4.1700528128        0.3001905734
 H        -13.2811036454        1.6687167799        0.0680120524
 H        -12.3705546146        0.2990059656        0.8690796892
 O         -3.1836561927       -5.7061770607       -2.9666264761
 O         -5.2382649986       -3.7434988158       -2.2656482264
 C         -2.9578738917       -5.6704985240        0.6528715702
 C         -2.0942149016       -6.3447673058        1.6877951530
 C         -2.7746041753       -5.9465337526       -0.6930590458
 C         -3.5267294193       -5.3325449539       -1.6881615237
 C         -3.9424319485       -4.7625862146        1.0079814934
 C         -4.5021770042       -4.3919079500       -1.3229149938
 C         -4.6932658390       -4.1374892762        0.0308592560
 C         -0.6447833878       -6.2666449445        1.3203243393
 C         -4.0619709397       -5.4426020962       -4.0416649538
 C          0.1579045660       -7.3085117065        1.2075495699
 H         -2.2486516147       -5.8441162404        2.6482675237
 H         -2.3926192317       -7.3918121407        1.7964052097
 H         -2.0198491865       -6.6495618883       -1.0061450967
 H         -4.1197830160       -4.5265240527        2.0459243900
 H         -5.4383263267       -3.4105642937        0.3208751413
 H         -0.2742973995       -5.2667986202        1.1433962016
 H         -3.6427673796       -5.9799010213       -4.8923042819
 H         -4.1163110433       -4.3769324618       -4.2706416120
 H         -5.0656732009       -5.8184827119       -3.8333053587
 H         -5.8153543694       -3.0812134687       -1.8430758564
 H          1.1964081585       -7.2030105625        0.9395901888
 H         -0.1903179724       -8.3143186054        1.3887237952
 O          5.8363560370       -2.9147397394        1.0033469965
 O          8.0456428962       -3.9642320594       -0.0257362962
 C          5.4322637587       -1.9870554714       -2.5610567366
 C          4.4935764696       -1.2525844677       -3.4818192226
 C          5.1494058417       -2.0799623666       -1.1995125342
 C          6.0124842746       -2.7436233966       -0.3473048331
 C          6.5918420269       -2.5577476725       -3.0567612369
 C          7.1885516032       -3.3170590150       -0.8599395712
 C          7.4664254411       -3.2211548284       -2.2115660993
 C          4.9831045000        0.1477147818       -3.7007859655
 C          4.6844116286       -2.3638240872        1.5884950104
 C          5.3643910197        0.6335171685       -4.8662724543
 H          4.4233814922       -1.7719699260       -4.4383312610
 H          3.5045099632       -1.2231243002       -3.0193472429
 H          4.2417509829       -1.6359829378       -0.8205869407
 H          6.8125506681       -2.4837337961       -4.1102516237
 H          8.3724736138       -3.6701335497       -2.5860548682
 H          5.0394876825        0.7573251854       -2.8093133436
 H          4.7476291444       -2.6052201244        2.6481427703
 H          3.7784587496       -2.8051218785        1.1631311954
 H          4.6614433974       -1.2786024843        1.4606330653
 H          7.6916370931       -3.8726000550        0.8704153296
 H          5.7250745920        1.6432595787       -4.9730867347
 H          5.3366279487        0.0398937468       -5.7637094216
